Version 4
SHEET 1 1900 680
WIRE 192 -128 -144 -128
WIRE 624 -128 192 -128
WIRE -144 -64 -144 -128
WIRE 208 32 96 32
WIRE 416 32 272 32
WIRE -144 48 -144 16
WIRE 192 128 192 -128
WIRE -48 144 -112 144
WIRE 96 144 96 32
WIRE 96 144 32 144
WIRE 160 144 96 144
WIRE 416 160 416 32
WIRE 416 160 224 160
WIRE 464 160 416 160
WIRE 576 160 528 160
WIRE 160 176 96 176
WIRE 416 192 416 160
WIRE 688 240 672 240
WIRE 192 256 192 192
WIRE 672 256 672 240
WIRE 416 288 416 272
WIRE 560 288 416 288
WIRE 416 304 416 288
WIRE 688 304 688 240
WIRE 560 320 560 288
WIRE 656 320 560 320
WIRE 672 320 656 320
WIRE 768 336 720 336
WIRE 800 336 768 336
WIRE 912 336 864 336
WIRE 656 352 608 352
WIRE 624 368 624 -128
WIRE 688 368 624 368
WIRE 416 400 416 368
WIRE 96 480 96 176
WIRE 512 480 96 480
WIRE 608 480 608 352
WIRE 608 480 592 480
WIRE 656 480 608 480
WIRE 768 480 768 336
WIRE 768 480 720 480
WIRE 96 592 96 560
WIRE -112 608 -112 144
WIRE 768 608 768 480
WIRE 768 608 -112 608
FLAG 416 400 0
FLAG 192 256 0
FLAG -144 48 0
FLAG 672 256 0
FLAG 96 592 0
FLAG 576 160 vsine
FLAG 912 336 vcos
SYMBOL OpAmps\\opamp2 192 96 R0
SYMATTR InstName U1
SYMATTR Value UA741
SYMBOL OpAmps\\opamp2 688 400 M180
SYMATTR InstName U2
SYMATTR Value UA741
SYMBOL cap 272 16 R90
WINDOW 0 0 32 VBottom 2
WINDOW 3 32 32 VTop 2
SYMATTR InstName C1
SYMATTR Value 1n
SYMBOL cap 720 464 R90
WINDOW 0 0 32 VBottom 2
WINDOW 3 32 32 VTop 2
SYMATTR InstName C2
SYMATTR Value 1n
SYMBOL res 608 464 R90
WINDOW 0 0 56 VBottom 2
WINDOW 3 32 56 VTop 2
SYMATTR InstName R1
SYMATTR Value 159
SYMBOL res 48 128 R90
WINDOW 0 0 56 VBottom 2
WINDOW 3 32 56 VTop 2
SYMATTR InstName R2
SYMATTR Value 159
SYMBOL res 432 288 R180
WINDOW 0 36 76 Left 2
WINDOW 3 36 40 Left 2
SYMATTR InstName R3
SYMATTR Value 159
SYMBOL cap 400 304 R0
SYMATTR InstName C3
SYMATTR Value 1n
SYMBOL voltage -144 -80 R0
WINDOW 123 0 0 Left 0
WINDOW 39 0 0 Left 0
SYMATTR InstName V1
SYMATTR Value 5
SYMBOL voltage 96 464 R0
WINDOW 123 0 0 Left 0
WINDOW 39 0 0 Left 0
SYMATTR InstName V2
SYMATTR Value 2.5
SYMBOL cap 528 144 R90
WINDOW 0 0 32 VBottom 2
WINDOW 3 32 32 VTop 2
SYMATTR InstName C4
SYMATTR Value 1n
SYMBOL cap 864 320 R90
WINDOW 0 0 32 VBottom 2
WINDOW 3 32 32 VTop 2
SYMATTR InstName C5
SYMATTR Value 1n
TEXT -176 616 Left 2 !.tran 0.4m
TEXT 1176 520 Left 2 !.include "C:\\Users\\Manas\\Downloads\\TSMC_180nm (2).txt"
TEXT 1176 408 Left 2 !.include "C:\\Users\\Manas\\Downloads\\UA741 (1).301"
